<?xml version="1.0" encoding="UTF-8"?>

<!-- generated on 2025-07-06 22:02:29.868631 by osmWebWizard.py v1_20_0+0002-343658e7c64
<configuration>
    <net-file value="C:\Users\Yasin\Sumo\2025-07-06-22-01-48\osm.net.xml.gz"/>
    <output-trip-file value="C:\Users\Yasin\Sumo\2025-07-06-22-01-48\osm.passenger.trips.xml"/>
    <route-file value="C:\Users\Yasin\Sumo\2025-07-06-22-01-48\osm.passenger.rou.xml"/>
    <prefix value="veh"/>
    <trip-attributes value="departLane=&quot;best&quot;"/>
    <fringe-start-attributes value="departSpeed=&quot;max&quot;"/>
    <vehicle-class value="passenger"/>
    <lanes value="True"/>
    <fringe-factor value="5"/>
    <allow-fringe.min-length value="1000.0"/>
    <via-edge-types value="highway.motorway,highway.motorway_link,highway.trunk_link,highway.primary_link,highway.secondary_link,highway.tertiary_link"/>
    <min-distance value="300.0"/>
    <min-distance.fringe value="10.0"/>
    <remove-loops value="True"/>
    <validate value="True"/>
    <end value="3599.0"/>
    <insertion-density value="12.0"/>
</configuration>
-->

<!-- generated on 2025-07-06 22:02:19 by Eclipse SUMO duarouter Version 1.20.0
<configuration xmlns:xsi="http://www.w3.org/2001/XMLSchema-instance" xsi:noNamespaceSchemaLocation="http://sumo.dlr.de/xsd/duarouterConfiguration.xsd">

    <input>
        <net-file value="C:\Users\Yasin\Sumo\2025-07-06-22-01-48\osm.net.xml.gz"/>
        <route-files value="C:\Users\Yasin\Sumo\2025-07-06-22-01-48\osm.passenger.trips.xml"/>
    </input>

    <output>
        <output-file value="C:\Users\Yasin\Sumo\2025-07-06-22-01-48\osm.passenger.trips.xml.tmp"/>
        <alternatives-output value="NUL"/>
        <write-trips value="true"/>
    </output>

    <processing>
        <remove-loops value="true"/>
    </processing>

    <time>
        <begin value="0.0"/>
        <end value="3599.0"/>
    </time>

    <report>
        <no-warnings value="true"/>
        <ignore-errors value="true"/>
        <no-step-log value="true"/>
    </report>

</configuration>
-->

<routes xmlns:xsi="http://www.w3.org/2001/XMLSchema-instance" xsi:noNamespaceSchemaLocation="http://sumo.dlr.de/xsd/routes_file.xsd">
    <vType id="veh_passenger" vClass="passenger"/>
    <trip id="veh0" type="veh_passenger" depart="0.00" departLane="best" from="213165666#2" to="-1409900743#1"/>
    <trip id="veh1" type="veh_passenger" depart="0.72" departLane="best" from="213165896#0" to="-213165794#1"/>
    <trip id="veh2" type="veh_passenger" depart="1.44" departLane="best" from="213165859#2" to="213165753#1"/>
    <trip id="veh3" type="veh_passenger" depart="2.15" departLane="best" from="375188759#4" to="-212691439#1"/>
    <trip id="veh4" type="veh_passenger" depart="2.87" departLane="best" from="-713954320#0" to="-212407060"/>
    <trip id="veh5" type="veh_passenger" depart="3.59" departLane="best" from="-213165779#5" to="212410023#6"/>
    <trip id="veh6" type="veh_passenger" depart="4.31" departLane="best" from="213165698#8" to="212687515#1"/>
    <trip id="veh7" type="veh_passenger" depart="5.02" departLane="best" from="-213165787" to="213091649"/>
    <trip id="veh8" type="veh_passenger" depart="5.74" departLane="best" from="214674581#0" to="-1049528725#8"/>
    <trip id="veh9" type="veh_passenger" depart="6.46" departLane="best" from="214674568#0" to="-213165793#12"/>
    <trip id="veh10" type="veh_passenger" depart="7.18" departLane="best" from="-214727864#2" to="-213165656#1"/>
    <trip id="veh11" type="veh_passenger" depart="7.90" departLane="best" from="-654362994#1" to="-214727843#7"/>
    <trip id="veh12" type="veh_passenger" depart="8.61" departLane="best" from="-212691454#3" to="-212700696#1"/>
    <trip id="veh13" type="veh_passenger" depart="9.33" departLane="best" from="215039154#1" to="213165629#9"/>
    <trip id="veh14" type="veh_passenger" depart="10.05" departLane="best" from="214674574#1" to="213165851#2"/>
    <trip id="veh15" type="veh_passenger" depart="10.77" departLane="best" from="-212680173#1" to="-737092450"/>
    <trip id="veh16" type="veh_passenger" depart="11.48" departLane="best" from="-216942727#1" to="-212691421"/>
    <trip id="veh17" type="veh_passenger" depart="12.20" departLane="best" from="214727886#1" to="-213165645#6"/>
    <trip id="veh18" type="veh_passenger" depart="12.92" departLane="best" from="216934658#0" to="212700730#2"/>
    <trip id="veh19" type="veh_passenger" depart="13.64" departLane="best" from="213165797#0" to="-212410026#0"/>
    <trip id="veh20" type="veh_passenger" depart="14.36" departLane="best" from="-213165805#1" to="-214674448#4"/>
    <trip id="veh21" type="veh_passenger" depart="15.07" departLane="best" from="-212691405#1" to="213165815#27"/>
    <trip id="veh22" type="veh_passenger" depart="15.79" departLane="best" from="-212700709" to="-213165902#1"/>
    <trip id="veh23" type="veh_passenger" depart="16.51" departLane="best" from="213165662#4" to="-215039224"/>
    <trip id="veh24" type="veh_passenger" depart="17.23" departLane="best" from="215039351#2" to="-213165759#10"/>
    <trip id="veh25" type="veh_passenger" depart="17.94" departLane="best" from="-213165879#1" to="460320422#9"/>
    <trip id="veh26" type="veh_passenger" depart="18.66" departLane="best" from="213165698#1" to="213165636#1"/>
    <trip id="veh27" type="veh_passenger" depart="19.38" departLane="best" from="-213165692" to="213165849#2"/>
    <trip id="veh28" type="veh_passenger" depart="20.10" departLane="best" from="-213165663#3" to="-216942116#3"/>
    <trip id="veh29" type="veh_passenger" depart="20.81" departLane="best" from="-827383235#0" to="213165671#3"/>
    <trip id="veh30" type="veh_passenger" depart="21.53" departLane="best" from="-212691438#1" to="-213165758#28"/>
    <trip id="veh31" type="veh_passenger" depart="22.25" departLane="best" from="214727978#4" to="214674460#5"/>
    <trip id="veh32" type="veh_passenger" depart="22.97" departLane="best" from="213165808#2" to="-212407102#0"/>
    <trip id="veh33" type="veh_passenger" depart="23.69" departLane="best" from="-214674545#0" to="-213165883#1"/>
    <trip id="veh34" type="veh_passenger" depart="24.40" departLane="best" from="213165758#7" to="519131810#1"/>
    <trip id="veh35" type="veh_passenger" depart="25.12" departLane="best" from="217169031#3" to="-214674547#0"/>
    <trip id="veh36" type="veh_passenger" depart="25.84" departLane="best" from="213165703#3" to="-457107495#1"/>
    <trip id="veh37" type="veh_passenger" depart="26.56" departLane="best" from="457110996#1" to="1050596912"/>
    <trip id="veh38" type="veh_passenger" depart="27.27" departLane="best" from="-213165874#4" to="-213165840#0"/>
    <trip id="veh39" type="veh_passenger" depart="27.99" departLane="best" from="212691444#0" to="-213165872#6"/>
    <trip id="veh40" type="veh_passenger" depart="28.71" departLane="best" from="212700742#2" to="457109708#4"/>
    <trip id="veh41" type="veh_passenger" depart="29.43" departLane="best" from="-460320417" to="-213165788#0"/>
    <trip id="veh42" type="veh_passenger" depart="30.15" departLane="best" from="861710736#9" to="212410025#10"/>
    <trip id="veh43" type="veh_passenger" depart="30.86" departLane="best" from="-212691451#0" to="-212410026#15"/>
    <trip id="veh44" type="veh_passenger" depart="31.58" departLane="best" from="-212700739#1" to="213165655#0"/>
    <trip id="veh45" type="veh_passenger" depart="32.30" departLane="best" from="-214674521#0" to="-713954322#2"/>
    <trip id="veh46" type="veh_passenger" depart="33.02" departLane="best" from="212680173#3" to="-217168908"/>
    <trip id="veh47" type="veh_passenger" depart="33.73" departLane="best" from="457109708#3" to="212680162"/>
    <trip id="veh48" type="veh_passenger" depart="34.45" departLane="best" from="-737092441#0" to="-216942725#3"/>
    <trip id="veh49" type="veh_passenger" depart="35.17" departLane="best" from="-1063488291#1" to="213165829#1"/>
    <trip id="veh50" type="veh_passenger" depart="35.89" departLane="best" from="213165755#4" to="212682913#0"/>
    <trip id="veh51" type="veh_passenger" depart="36.61" departLane="best" from="-213165879#0" to="213165676#0"/>
    <trip id="veh52" type="veh_passenger" depart="37.32" departLane="best" from="-212700743#2" to="-816195594#0"/>
    <trip id="veh53" type="veh_passenger" depart="38.04" departLane="best" from="1049528722#1" to="654362994#10"/>
    <trip id="veh54" type="veh_passenger" depart="38.76" departLane="best" from="217169027#5" to="213165874#3"/>
    <trip id="veh55" type="veh_passenger" depart="39.48" departLane="best" from="212407175#12" to="-213165703#0"/>
    <trip id="veh56" type="veh_passenger" depart="40.19" departLane="best" from="457110616#4" to="-217299640#0"/>
    <trip id="veh57" type="veh_passenger" depart="40.91" departLane="best" from="-214674460#4" to="-213165667#2"/>
    <trip id="veh58" type="veh_passenger" depart="41.63" departLane="best" from="213165632#2" to="213165653#7"/>
    <trip id="veh59" type="veh_passenger" depart="42.35" departLane="best" from="214667810#1" to="212687500#0"/>
    <trip id="veh60" type="veh_passenger" depart="43.07" departLane="best" from="-214674460#6" to="212680169#2"/>
    <trip id="veh61" type="veh_passenger" depart="43.78" departLane="best" departSpeed="max" from="-1044554852" to="-214674580#3"/>
    <trip id="veh62" type="veh_passenger" depart="44.50" departLane="best" from="-1264480600#2" to="460318776#2"/>
    <trip id="veh63" type="veh_passenger" depart="45.22" departLane="best" departSpeed="max" from="252886471#0" to="-214727955#2"/>
    <trip id="veh64" type="veh_passenger" depart="45.94" departLane="best" from="-214674508" to="-212680159#3"/>
    <trip id="veh65" type="veh_passenger" depart="46.65" departLane="best" departSpeed="max" from="252886471#0" to="519134531#2"/>
    <trip id="veh66" type="veh_passenger" depart="47.37" departLane="best" from="-212691438#10" to="1409900743#7"/>
    <trip id="veh67" type="veh_passenger" depart="48.09" departLane="best" departSpeed="max" from="-212682919#2" to="214667815"/>
    <trip id="veh68" type="veh_passenger" depart="48.81" departLane="best" from="214667926#0" to="-213165627#0"/>
    <trip id="veh69" type="veh_passenger" depart="49.53" departLane="best" from="214674474#8" to="212691405#4"/>
    <trip id="veh70" type="veh_passenger" depart="50.24" departLane="best" from="-213165874#5" to="252886471#1-AddedOnRampEdge"/>
    <trip id="veh71" type="veh_passenger" depart="50.96" departLane="best" from="-713954321#0" to="213165762#1"/>
    <trip id="veh72" type="veh_passenger" depart="51.68" departLane="best" from="-212680177#2" to="-213165851#3"/>
    <trip id="veh73" type="veh_passenger" depart="52.40" departLane="best" from="-213165751#1" to="-214674532#1"/>
    <trip id="veh74" type="veh_passenger" depart="53.11" departLane="best" from="861710736#3" to="213165700#4"/>
    <trip id="veh75" type="veh_passenger" depart="53.83" departLane="best" departSpeed="max" from="-737092468" to="212410027#1"/>
    <trip id="veh76" type="veh_passenger" depart="54.55" departLane="best" from="213091670#5" to="-213165800#0"/>
    <trip id="veh77" type="veh_passenger" depart="55.27" departLane="best" from="-214727844#8" to="212700758#0"/>
    <trip id="veh78" type="veh_passenger" depart="55.98" departLane="best" from="-213165812#0" to="-213165793#10"/>
    <trip id="veh79" type="veh_passenger" depart="56.70" departLane="best" from="212687501" to="213165659#0"/>
    <trip id="veh80" type="veh_passenger" depart="57.42" departLane="best" from="-213165808#1" to="457110580#8"/>
    <trip id="veh81" type="veh_passenger" depart="58.14" departLane="best" from="215039366#1" to="-212687509#0"/>
    <trip id="veh82" type="veh_passenger" depart="58.86" departLane="best" from="-213165820#0" to="213165727"/>
    <trip id="veh83" type="veh_passenger" depart="59.57" departLane="best" from="-213165763" to="-213165629#8"/>
    <trip id="veh84" type="veh_passenger" depart="60.29" departLane="best" from="460318776#6" to="212700710"/>
    <trip id="veh85" type="veh_passenger" depart="61.01" departLane="best" from="124698382#1" to="214674479#8"/>
    <trip id="veh86" type="veh_passenger" depart="61.73" departLane="best" from="214674576#0" to="-213165711#19"/>
    <trip id="veh87" type="veh_passenger" depart="62.44" departLane="best" from="-212700696#2" to="-737092454#0"/>
    <trip id="veh88" type="veh_passenger" depart="63.16" departLane="best" departSpeed="max" from="-713954321#2" to="-1242172035"/>
    <trip id="veh89" type="veh_passenger" depart="63.88" departLane="best" from="-213165841#1" to="213165751#2"/>
    <trip id="veh90" type="veh_passenger" depart="64.60" departLane="best" departSpeed="max" from="816207756" to="-212700698#2"/>
    <trip id="veh91" type="veh_passenger" depart="65.32" departLane="best" from="-460322876" to="-214727844#8"/>
    <trip id="veh92" type="veh_passenger" depart="66.03" departLane="best" from="216934658#0" to="-213165841#7"/>
    <trip id="veh93" type="veh_passenger" depart="66.75" departLane="best" from="213165709#3" to="1044554864#2"/>
    <trip id="veh94" type="veh_passenger" depart="67.47" departLane="best" departSpeed="max" from="-713954318" to="-213165902#4"/>
    <trip id="veh95" type="veh_passenger" depart="68.19" departLane="best" from="213165841#6" to="460315553#4"/>
    <trip id="veh96" type="veh_passenger" depart="68.90" departLane="best" departSpeed="max" from="-816884131" to="216942725#7"/>
    <trip id="veh97" type="veh_passenger" depart="69.62" departLane="best" from="212691404#3" to="-212410030#1"/>
    <trip id="veh98" type="veh_passenger" depart="70.34" departLane="best" from="915862471#9" to="214728004#2"/>
    <trip id="veh99" type="veh_passenger" depart="71.06" departLane="best" from="-717518197#1" to="460318773#2-AddedOffRampEdge"/>
    <trip id="veh100" type="veh_passenger" depart="71.78" departLane="best" from="-215039161#4" to="-213165671#2"/>
    <trip id="veh101" type="veh_passenger" depart="72.49" departLane="best" from="1409900740#5" to="-213165768#0"/>
    <trip id="veh102" type="veh_passenger" depart="73.21" departLane="best" from="-460321864" to="-212680160#0"/>
    <trip id="veh103" type="veh_passenger" depart="73.93" departLane="best" from="217168915" to="816884129#10"/>
    <trip id="veh104" type="veh_passenger" depart="74.65" departLane="best" from="-213165875#0" to="214674479#5"/>
    <trip id="veh105" type="veh_passenger" depart="75.36" departLane="best" from="1049528724#1" to="-717518196#0"/>
    <trip id="veh106" type="veh_passenger" depart="76.08" departLane="best" from="-654362994#10" to="457109708#4"/>
    <trip id="veh107" type="veh_passenger" depart="76.80" departLane="best" from="-212691435#2" to="213165825#8"/>
    <trip id="veh108" type="veh_passenger" depart="77.52" departLane="best" from="-213165654#1" to="-214674460#7"/>
    <trip id="veh109" type="veh_passenger" depart="78.24" departLane="best" from="717518196#9" to="212700738#0"/>
    <trip id="veh110" type="veh_passenger" depart="78.95" departLane="best" from="212687500#6" to="213165887#0"/>
    <trip id="veh111" type="veh_passenger" depart="79.67" departLane="best" from="212410042#5" to="212700747#2"/>
    <trip id="veh112" type="veh_passenger" depart="80.39" departLane="best" from="212407175#3" to="215039386#1"/>
    <trip id="veh113" type="veh_passenger" depart="81.11" departLane="best" from="-213165656#5" to="685816481#1"/>
    <trip id="veh114" type="veh_passenger" depart="81.82" departLane="best" from="-212691405#3" to="-213165708#1"/>
    <trip id="veh115" type="veh_passenger" depart="82.54" departLane="best" from="-213165616#2" to="213165752#4"/>
    <trip id="veh116" type="veh_passenger" depart="83.26" departLane="best" from="213165815#8" to="-213091670#5"/>
    <trip id="veh117" type="veh_passenger" depart="83.98" departLane="best" from="300744791#5" to="-213165838#1"/>
    <trip id="veh118" type="veh_passenger" depart="84.70" departLane="best" from="861710736#4" to="213165646#3"/>
    <trip id="veh119" type="veh_passenger" depart="85.41" departLane="best" from="-685816471#1" to="-212700746#3"/>
    <trip id="veh120" type="veh_passenger" depart="86.13" departLane="best" from="212410033" to="460320422#3"/>
    <trip id="veh121" type="veh_passenger" depart="86.85" departLane="best" from="-213165754#0" to="-213165823#0"/>
    <trip id="veh122" type="veh_passenger" depart="87.57" departLane="best" from="-213165821#0" to="-457107495#2"/>
    <trip id="veh123" type="veh_passenger" depart="88.28" departLane="best" from="213165731" to="-214674479#0"/>
    <trip id="veh124" type="veh_passenger" depart="89.00" departLane="best" from="-214674547#0" to="213165896#0"/>
    <trip id="veh125" type="veh_passenger" depart="89.72" departLane="best" from="-212687509#12" to="1050596912"/>
    <trip id="veh126" type="veh_passenger" depart="90.44" departLane="best" from="-915862471#3" to="861710736#5"/>
    <trip id="veh127" type="veh_passenger" depart="91.15" departLane="best" from="-212687509#16" to="-213165768#0"/>
    <trip id="veh128" type="veh_passenger" depart="91.87" departLane="best" from="-213165875#0" to="460320422#1-AddedOnRampEdge"/>
    <trip id="veh129" type="veh_passenger" depart="92.59" departLane="best" from="-215039348#2" to="-213165659#1"/>
    <trip id="veh130" type="veh_passenger" depart="93.31" departLane="best" departSpeed="max" from="214727942#0" to="213165803#0"/>
    <trip id="veh131" type="veh_passenger" depart="94.03" departLane="best" from="213165635#4" to="816884130#3"/>
    <trip id="veh132" type="veh_passenger" depart="94.74" departLane="best" from="213165701#5" to="1049528741#1"/>
    <trip id="veh133" type="veh_passenger" depart="95.46" departLane="best" from="213165709#12" to="460321867#1"/>
    <trip id="veh134" type="veh_passenger" depart="96.18" departLane="best" from="213165630#2" to="-212700752#1"/>
    <trip id="veh135" type="veh_passenger" depart="96.90" departLane="best" from="-212700730#1" to="-212691433"/>
    <trip id="veh136" type="veh_passenger" depart="97.61" departLane="best" from="-213165890#0" to="-213165631#1"/>
    <trip id="veh137" type="veh_passenger" depart="98.33" departLane="best" from="213165819#3" to="-213165758#0"/>
    <trip id="veh138" type="veh_passenger" depart="99.05" departLane="best" from="213165659#5" to="-213165875#1"/>
    <trip id="veh139" type="veh_passenger" depart="99.77" departLane="best" from="1409900745#1" to="457110580#8"/>
    <trip id="veh140" type="veh_passenger" depart="100.49" departLane="best" departSpeed="max" from="215039143" to="-212691456#0"/>
    <trip id="veh141" type="veh_passenger" depart="101.20" departLane="best" departSpeed="max" from="-713954321#2" to="-213165900#0"/>
    <trip id="veh142" type="veh_passenger" depart="101.92" departLane="best" from="1049528725#0" to="214674453#3"/>
    <trip id="veh143" type="veh_passenger" depart="102.64" departLane="best" from="213165663#4" to="213165872#2"/>
    <trip id="veh144" type="veh_passenger" depart="103.36" departLane="best" from="213165866#1" to="212691417"/>
    <trip id="veh145" type="veh_passenger" depart="104.07" departLane="best" from="-717518197#2" to="-1063488291#1"/>
    <trip id="veh146" type="veh_passenger" depart="104.79" departLane="best" from="-212687515#1" to="300744790#1"/>
    <trip id="veh147" type="veh_passenger" depart="105.51" departLane="best" from="457109708#6" to="212687515#4"/>
    <trip id="veh148" type="veh_passenger" depart="106.23" departLane="best" from="214727942#1" to="212700743#3"/>
    <trip id="veh149" type="veh_passenger" depart="106.95" departLane="best" from="-213165646#3" to="213165626#0"/>
    <trip id="veh150" type="veh_passenger" depart="107.66" departLane="best" from="214674510#5" to="457109708#7"/>
    <trip id="veh151" type="veh_passenger" depart="108.38" departLane="best" from="214674531#0" to="-216942725#3"/>
    <trip id="veh152" type="veh_passenger" depart="109.10" departLane="best" from="-457107982" to="-213165759#4"/>
    <trip id="veh153" type="veh_passenger" depart="109.82" departLane="best" from="-213165841#4" to="-212700718#15"/>
    <trip id="veh154" type="veh_passenger" depart="110.53" departLane="best" from="214674471" to="300744791#0"/>
    <trip id="veh155" type="veh_passenger" depart="111.25" departLane="best" from="-519131810#7" to="213165649#1"/>
    <trip id="veh156" type="veh_passenger" depart="111.97" departLane="best" from="-213165654#0" to="460318776#5"/>
    <trip id="veh157" type="veh_passenger" depart="112.69" departLane="best" from="216938473" to="737092462#3"/>
    <trip id="veh158" type="veh_passenger" depart="113.41" departLane="best" from="214674590#2" to="28117030#1"/>
    <trip id="veh159" type="veh_passenger" depart="114.12" departLane="best" departSpeed="max" from="-1409871188" to="-213165863#3"/>
    <trip id="veh160" type="veh_passenger" depart="114.84" departLane="best" from="-214727823" to="460318776#6"/>
    <trip id="veh161" type="veh_passenger" depart="115.56" departLane="best" from="-214674558#2" to="217168965"/>
    <trip id="veh162" type="veh_passenger" depart="116.28" departLane="best" from="-214674590#2" to="-213165881#1"/>
    <trip id="veh163" type="veh_passenger" depart="116.99" departLane="best" from="214674488" to="-212700733#1"/>
    <trip id="veh164" type="veh_passenger" depart="117.71" departLane="best" from="217168986#0" to="216938476"/>
    <trip id="veh165" type="veh_passenger" depart="118.43" departLane="best" from="-213165793#15" to="214727844#2"/>
    <trip id="veh166" type="veh_passenger" depart="119.15" departLane="best" from="1049528738#1" to="-214674510#0"/>
    <trip id="veh167" type="veh_passenger" depart="119.87" departLane="best" from="214674526" to="-213165808#1"/>
    <trip id="veh168" type="veh_passenger" depart="120.58" departLane="best" departSpeed="max" from="-1390773342" to="-213165716"/>
    <trip id="veh169" type="veh_passenger" depart="121.30" departLane="best" from="214727769#1" to="217168967"/>
    <trip id="veh170" type="veh_passenger" depart="122.02" departLane="best" from="713954322#5" to="-213165903#1"/>
    <trip id="veh171" type="veh_passenger" depart="122.74" departLane="best" from="-213165671#0" to="-460320417"/>
    <trip id="veh172" type="veh_passenger" depart="123.45" departLane="best" from="816207755#4" to="-212680177#1"/>
    <trip id="veh173" type="veh_passenger" depart="124.17" departLane="best" from="460320422#3" to="-212700752#0"/>
    <trip id="veh174" type="veh_passenger" depart="124.89" departLane="best" from="-737092438#1" to="-213165701#9"/>
    <trip id="veh175" type="veh_passenger" depart="125.61" departLane="best" from="682352834#0" to="-213165879#1"/>
    <trip id="veh176" type="veh_passenger" depart="126.33" departLane="best" from="-212700733#1" to="772875974#2"/>
    <trip id="veh177" type="veh_passenger" depart="127.04" departLane="best" from="-213165840#2" to="214674544#1"/>
    <trip id="veh178" type="veh_passenger" depart="127.76" departLane="best" from="213165629#7" to="-212410025#22"/>
    <trip id="veh179" type="veh_passenger" depart="128.48" departLane="best" from="-217169023#1" to="212700728#1"/>
    <trip id="veh180" type="veh_passenger" depart="129.20" departLane="best" from="-213165856#2" to="-213165815#14"/>
    <trip id="veh181" type="veh_passenger" depart="129.91" departLane="best" from="-1044554863#1" to="460318772#4"/>
    <trip id="veh182" type="veh_passenger" depart="130.63" departLane="best" from="212680176#3" to="213165827#0"/>
    <trip id="veh183" type="veh_passenger" depart="131.35" departLane="best" from="-213165870#0" to="213165736#0"/>
    <trip id="veh184" type="veh_passenger" depart="132.07" departLane="best" from="-215039295#1" to="-212687505"/>
    <trip id="veh185" type="veh_passenger" depart="132.78" departLane="best" from="-213165709#3" to="-214727780#0"/>
    <trip id="veh186" type="veh_passenger" depart="133.50" departLane="best" from="-214674533#2" to="-215039317#1"/>
    <trip id="veh187" type="veh_passenger" depart="134.22" departLane="best" from="213165823#2" to="214674479#10"/>
    <trip id="veh188" type="veh_passenger" depart="134.94" departLane="best" from="214674521#12" to="519131810#7"/>
    <trip id="veh189" type="veh_passenger" depart="135.66" departLane="best" from="-460322875" to="-214674460#1"/>
    <trip id="veh190" type="veh_passenger" depart="136.37" departLane="best" from="213165625#0" to="-685816480"/>
    <trip id="veh191" type="veh_passenger" depart="137.09" departLane="best" from="460320422#7" to="213165753#3"/>
    <trip id="veh192" type="veh_passenger" depart="137.81" departLane="best" from="457109708#3" to="213165644#2"/>
    <trip id="veh193" type="veh_passenger" depart="138.53" departLane="best" from="214674472#2" to="212691404#1"/>
    <trip id="veh194" type="veh_passenger" depart="139.24" departLane="best" departSpeed="max" from="-1044554852" to="214674446#5"/>
    <trip id="veh195" type="veh_passenger" depart="139.96" departLane="best" from="-737092441#1" to="-212700741#0"/>
    <trip id="veh196" type="veh_passenger" depart="140.68" departLane="best" from="213165701#9" to="-1080344685#5"/>
    <trip id="veh197" type="veh_passenger" depart="141.40" departLane="best" from="-816884130#3" to="-213165768#0"/>
    <trip id="veh198" type="veh_passenger" depart="142.12" departLane="best" from="124698382#4" to="457110580#11"/>
    <trip id="veh199" type="veh_passenger" depart="142.83" departLane="best" from="-214674530#2" to="-213165696"/>
    <trip id="veh200" type="veh_passenger" depart="143.55" departLane="best" from="212691436" to="212410026#18"/>
    <trip id="veh201" type="veh_passenger" depart="144.27" departLane="best" from="-213165658#4" to="-214727841"/>
    <trip id="veh202" type="veh_passenger" depart="144.99" departLane="best" from="214727824#6" to="-213165893#2"/>
    <trip id="veh203" type="veh_passenger" depart="145.70" departLane="best" from="-213165736#1" to="-213165800#0"/>
    <trip id="veh204" type="veh_passenger" depart="146.42" departLane="best" from="-213165738" to="-1409900741"/>
    <trip id="veh205" type="veh_passenger" depart="147.14" departLane="best" from="-213165832#0" to="1265047706"/>
    <trip id="veh206" type="veh_passenger" depart="147.86" departLane="best" from="215039204" to="-212687509#4"/>
    <trip id="veh207" type="veh_passenger" depart="148.58" departLane="best" from="-654367992#2" to="213165658#2"/>
    <trip id="veh208" type="veh_passenger" depart="149.29" departLane="best" from="-213165711#9" to="213165784#1"/>
    <trip id="veh209" type="veh_passenger" depart="150.01" departLane="best" departSpeed="max" from="212407102#0" to="-213165832#2"/>
    <trip id="veh210" type="veh_passenger" depart="150.73" departLane="best" from="213165703#7" to="-1049528725#3"/>
    <trip id="veh211" type="veh_passenger" depart="151.45" departLane="best" from="-213165886#1" to="214674452#4"/>
    <trip id="veh212" type="veh_passenger" depart="152.16" departLane="best" from="-212700728#1" to="717518197#2"/>
    <trip id="veh213" type="veh_passenger" depart="152.88" departLane="best" from="213165698#9" to="682324621"/>
    <trip id="veh214" type="veh_passenger" depart="153.60" departLane="best" from="213165841#2" to="215039333#0"/>
    <trip id="veh215" type="veh_passenger" depart="154.32" departLane="best" from="1049528725#0" to="214674564#1"/>
    <trip id="veh216" type="veh_passenger" depart="155.04" departLane="best" from="213165711#4" to="816884131"/>
    <trip id="veh217" type="veh_passenger" depart="155.75" departLane="best" from="213165617#0" to="654360521#0"/>
    <trip id="veh218" type="veh_passenger" depart="156.47" departLane="best" departSpeed="max" from="375188320#0" to="213165641#3"/>
    <trip id="veh219" type="veh_passenger" depart="157.19" departLane="best" from="-213165823#0" to="212410023#3"/>
    <trip id="veh220" type="veh_passenger" depart="157.91" departLane="best" from="214727900#0" to="212687520#1"/>
    <trip id="veh221" type="veh_passenger" depart="158.62" departLane="best" from="375188759#3" to="-213165879#0"/>
    <trip id="veh222" type="veh_passenger" depart="159.34" departLane="best" from="1264480598#2" to="-213165865#1"/>
    <trip id="veh223" type="veh_passenger" depart="160.06" departLane="best" from="-213165837#1" to="213165666#3"/>
    <trip id="veh224" type="veh_passenger" depart="160.78" departLane="best" from="214667903#2" to="212410034#3"/>
    <trip id="veh225" type="veh_passenger" depart="161.50" departLane="best" from="213165652#4" to="-213165897#0"/>
    <trip id="veh226" type="veh_passenger" depart="162.21" departLane="best" departSpeed="max" from="-212687517" to="214667962#1"/>
    <trip id="veh227" type="veh_passenger" depart="162.93" departLane="best" from="-213165887#3" to="-214674566#0"/>
    <trip id="veh228" type="veh_passenger" depart="163.65" departLane="best" from="212682913#2" to="-213165636#3"/>
    <trip id="veh229" type="veh_passenger" depart="164.37" departLane="best" from="-213165815#11" to="213165779#0"/>
    <trip id="veh230" type="veh_passenger" depart="165.08" departLane="best" from="213165802#1" to="212680175#0"/>
    <trip id="veh231" type="veh_passenger" depart="165.80" departLane="best" from="654357405#2" to="-212687509#15"/>
    <trip id="veh232" type="veh_passenger" depart="166.52" departLane="best" from="678884983#1" to="213165758#33"/>
    <trip id="veh233" type="veh_passenger" depart="167.24" departLane="best" departSpeed="max" from="-713954316" to="457110580#7"/>
    <trip id="veh234" type="veh_passenger" depart="167.95" departLane="best" from="212700741#1" to="213165780"/>
    <trip id="veh235" type="veh_passenger" depart="168.67" departLane="best" from="-215039333#2" to="214667967#0"/>
    <trip id="veh236" type="veh_passenger" depart="169.39" departLane="best" from="-217168960" to="1049528725#5"/>
    <trip id="veh237" type="veh_passenger" depart="170.11" departLane="best" from="-214727953#1" to="213165897#3"/>
    <trip id="veh238" type="veh_passenger" depart="170.83" departLane="best" from="-685816471#1" to="213165885#5"/>